*Heading
** Job name: Job-1 Model name: Model-1
** Generated by: Abaqus/CAE Student Edition 2021
*Preprint, echo=NO, model=NO, history=NO, contact=NO
**
** PARTS
**
*Part, name=Part-1
*End Part
**  
**
** ASSEMBLY
**
*Assembly, name=Assembly
**  
*Instance, name=Part-1-1, part=Part-1
*Node
      1,           0.,  0.500995517
      2,           0.,           5.
      3,   0.96734792,  0.129036009
      4,  0.884570837,  0.234607905
      5,   0.77728337,  0.315740734
      6,  0.657750845,  0.377690196
      7,  0.531491756,  0.424562335
      8,  0.401266336,  0.458991319
      9,   1.00112331,           0.
     10,           3.,           0.
     11,           3.,           5.
     12,           0.,  0.641589403
     13,           0.,   0.78218329
     14,           0.,  0.922777176
     15,           0.,   1.06337106
     16,           0.,   1.20396495
     17,           0.,   1.34455884
     18,           0.,   1.48515272
     19,           0.,   1.62574661
     20,           0.,   1.76634049
** ... 939 like lines cut
*Element, type=CPS3
 1, 758, 643, 697
 2, 938, 689, 634
 3, 713, 706, 647
 4, 708, 653, 651
 5, 804, 756, 757
 6, 812, 778, 768
 7, 833, 787, 786
 8, 841, 794, 797
 9, 861, 862, 817
10, 866, 825, 823
11, 956, 831, 830
12, 877, 844, 845
13, 879, 846, 847
14, 882, 946, 851
15, 914, 742, 657
16, 935, 606, 605
*Element, type=CPS4R
 17,   7, 121, 194,   8
 18, 235, 232, 113, 122
 19, 122,  18,  17, 227
 20,  19, 113, 114,  20
 21, 166,  74,  73, 165
 22, 117,   4,   3, 118
 23,   4, 117, 116,   5
 24,   9,  57, 118,   3
 25, 119,  42,  41, 143
 26,  12,   1,  44, 145
 27, 230, 342, 318, 226
 28,  12, 145, 229,  13
 29,  13, 229, 230,  14
 30, 226,  15,  14, 230
 31, 123,   6,   5, 116
 32,  16, 120, 227,  17
 33, 171,  79,  78, 170
 34,  81, 173, 174,  82
 35,  20, 114, 124,  21
 36,  22, 125, 126,  23
** ... 874 like lines cut
*Nset, nset=Set-1, generate
   1,  959,    1
*Elset, elset=Set-1, generate
   1,  910,    1
** Section: Section-1
*Solid Section, elset=Set-1, material=Material-1
,
*End Instance
**  
*Nset, nset=Disp, instance=Part-1-1
   2,  11,  93,  94,  95,  96,  97,  98,  99, 100, 101, 102, 103, 104, 105, 106
 107, 108, 109, 110, 111, 112
*Elset, elset=Disp, instance=Part-1-1
  51,  67,  68,  97,  98, 106, 111, 114, 115, 138, 141, 143, 155, 156, 157, 158
 186, 192, 228, 233, 269
*Nset, nset=Xsymm, instance=Part-1-1
  1,  2, 12, 13, 14, 15, 16, 17, 18, 19, 20, 21, 22, 23, 24, 25
 26, 27, 28, 29, 30, 31, 32, 33, 34, 35, 36, 37, 38, 39, 40, 41
 42,
*Elset, elset=Xsymm, instance=Part-1-1
  19,  20,  25,  26,  28,  29,  30,  32,  35,  36,  37,  38,  39,  40,  41,  43
  44,  45,  46,  47,  48,  49,  97, 116, 120, 121, 125, 126, 127, 131, 139, 146
*Nset, nset=Ysymm, instance=Part-1-1
  9, 10, 45, 46, 47, 48, 49, 50, 51, 52, 53, 54, 55, 56, 57
*Elset, elset=Ysymm, instance=Part-1-1
  24,  54,  61,  62,  64,  65,  66, 123, 124, 178, 179, 180, 183, 249
*End Assembly
*Amplitude, name=Amp-1
             0.,              0.,            0.01,              1.
** 
** MATERIALS
** 
*Material, name=Material-1
*Density
 7.85e-09,
*Elastic
210000., 0.3
*Plastic
  127.22,     0.
  590.19, 0.0005
  634.92,  0.001
  695.71,  0.002
  741.01,  0.003
  777.62,  0.004
  808.14,  0.005
  833.97,  0.006
  856.06,  0.007
  875.06,  0.008
   891.5,  0.009
  905.79,   0.01
  918.25,  0.011
  929.18,  0.012
  938.78,  0.013
  947.26,  0.014
  954.77,  0.015
  961.46,  0.016
  967.43,  0.017
  972.78,  0.018
** ... 271 like lines cut
** ----------------------------------------------------------------
** 
** STEP: Step-1
** 
*Step, name=Step-1, nlgeom=YES
*Dynamic, Explicit
, 0.01
*Bulk Viscosity
0.06, 1.2
** 
** BOUNDARY CONDITIONS
** 
** Name: BC-1 Type: Symmetry/Antisymmetry/Encastre
*Boundary
Xsymm, XSYMM
** Name: BC-2 Type: Symmetry/Antisymmetry/Encastre
*Boundary
Ysymm, YSYMM
** Name: BC-3 Type: Displacement/Rotation
*Boundary, amplitude=Amp-1
Disp, 2, 2, 0.5
** 
** OUTPUT REQUESTS
** 
*Restart, write, number interval=1, time marks=NO
** 
** FIELD OUTPUT: F-Output-1
** 
*Output, field
*Node Output
RF, U
*Element Output, directions=YES
PEEQ, S
** 
** HISTORY OUTPUT: H-Output-1
** 
*Output, history, variable=PRESELECT
*End Step
